[TITLE]
;;工程标题/备注

[OPTIONS]
;;Option             Value
FLOW_UNITS           CMS
INFILTRATION         HORTON
FLOW_ROUTING         DYNWAVE
LINK_OFFSETS         DEPTH
MIN_SLOPE            0
ALLOW_PONDING        NO
SKIP_STEADY_STATE    NO

START_DATE           06/28/2022
START_TIME           00:00:00
REPORT_START_DATE    06/28/2022
REPORT_START_TIME    00:00:00
END_DATE             06/28/2022
END_TIME             06:00:00
SWEEP_START          01/01
SWEEP_END            12/31
DRY_DAYS             0
REPORT_STEP          00:15:00
WET_STEP             00:05:00
DRY_STEP             01:00:00
ROUTING_STEP         0:00:20 
RULE_STEP            00:00:00

INERTIAL_DAMPING     PARTIAL
NORMAL_FLOW_LIMITED  BOTH
FORCE_MAIN_EQUATION  H-W
VARIABLE_STEP        0.75
LENGTHENING_STEP     0
MIN_SURFAREA         12.566
MAX_TRIALS           8
HEAD_TOLERANCE       0.005
SYS_FLOW_TOL         5
LAT_FLOW_TOL         5
MINIMUM_STEP         0.5
THREADS              1

[EVAPORATION]
;;数据源    参数
;;-------------- ----------------
CONSTANT         0.0
DRY_ONLY         NO

[RAINGAGES]
;;名称           格式    间隔 SCF      源头    
;;-------------- --------- ------ ------ ----------
1                INTENSITY 0:05     1.0      TIMESERIES 30YR            

[SUBCATCHMENTS]
;;名称           雨量计        出水口           面积     不透水百分比(%)  宽度    坡度(%)   边石长度  积雪        
;;-------------- ---------------- ---------------- -------- -------- -------- -------- -------- ----------------
SJW-1            1                S-9              16.9     10       500      15       0                        
SJW-2            1                SJW-1            4.34     10       284.7    18       0                        
SJW-4            1                S-10             2.91     10       190.9    18       0                        
SJW-5            1                S-11             1.18     10       77.4     18       0                        
SJW-7            1                SJW-5            0.57     10       37.4     13.2     0                        
SJW-8            1                SJW-5            1.93     10       126.6    15       0                        
S-9              1                S-19             3.69     18       500      6        0                        
S-10             1                S-11             2.53     18       166.01   5        0                        
S-11             1                S-16             2.7      18       177.1    12       0                        
S-12             1                S-11             2.36     15       154.8    12       0                        
S-13             1                S-16             3.03     15       198.8    14       0                        
S-14             1                S-15             3.50     15       229.6    5        0                        
S-15             1                S-23             0.67     15       43.9     3        0                        
S-16             1                S-15             5.33     80       349.7    3        0                        
S-17             1                S-15             1.53     15       100.3    14       0                        
S-18             1                S-16             3.17     15       208      6.4      0                        
S-19             1                S-16             9.52     18       624.6    10       0                        
S-20             1                S-21             0.31     80       50       10.00    0                        
S-21             1                S-67             0.44     80       30       8.33     0                        
S-22             1                S-33             1.49     80       75       10.94    0                        
S-23             1                S-22             0.40     80       40       12.5     0                        
S-24             1                S-66             0.20     80       19       6.25     0                        
S-26             1                S-22             0.44     80       22       12.5     0                        
S-27             1                S-28             1.10     80       72       15.95    0                        
S-28             1                S-29             0.34     80       23       22.20    0                        
S-29             1                PF-01            3.54     80       186      4.25     0                        
S-30             1                S-31             0.36     80       50       4.5      0                        
S-31             1                S-29             0.52     80       47       4.20     0                        
S-32             1                S-29             1.26     80       130      3.77     0                        
S-33             1                S-34             0.55     80       30       19.53    0                        
S-34             1                S-35             0.55     80       33       11.84    0                        
S-35             1                S-36             0.27     80       30       7.14     0                        
S-36             1                S-29             1.02     70       120      16.14    0                        
S-41             1                S-20             1.57     14       106      9.55     0                        
S-42             1                S-21             1.53     14       73       10.56    0                        
S-43             1                S-68             1.19     15       108      13       0                        
S-44             1                S-26             1.91     16       85       5.06     0                        
S-45             1                S-33             3.46     18       356      7.19     0                        
S-46             1                S-33             3.11     18       116      5.14     0                        
S-47             1                S-34             2.47     16       81       5.82     0                        
S-48             1                S-51             1        15       88       18.64    0                        
S-49             1                S-50             2.21     15       82       8.93     0                        
S-50             1                S-35             0.75     15       45       11.21    0                        
S-51             1                S-35             0.82     15       58       12.08    0                        
S-52             1                S-36             1.02     15       74       7.47     0                        
S-53             1                S-27             0.52     14       53       18.92    0                        
S-54             1                S-27             0.70     14       57       15.56    0                        
S-55             1                S-28             1.08     15       62       14.45    0                        
S-56             1                S-29             2.69     15       147      9.28     0                        
S-61             1                S-29             3.26     18       147      18.10    0                        
S-62             1                S-29             0.85     18       132      18.32    0                        
S-63             1                S-29             2.20     18       150      10.23    0                        
S-64             1                S-34             2.31     18       142      6.49     0                        
S-65             1                S-34             1.52     18       155      9.54     0                        
S-66             1                S-22             1.15     15       128      4.67     0                        
S-67             1                S-22             0.71     15       60       12.5     0                        
S-68             1                S-22             0.72     16       64       8.75     0                        
S-70             1                S-22             3.22     16       130      12.92    0                        
S-71             1                S-24             4.85     15       160      8.32     0                        
SJW-72           1                S-71             12.46    10       300      16.72    0                        
SJW-73           1                S-41             4.33     10       72       27.14    0                        
SJW-74           1                S-42             1.44     10       66       14.51    0                        
SJW-75           1                SJW-78           4.1      10       201      33.57    0                        
SJW-76           1                S-43             2.48     10       109      8.71     0                        
SJW-77           1                S-47             3.61     10       93       13.9     0                        
SJW-78           1                S-46             4.07     10       104      10.87    0                        
SJW-79           1                SJW-77           5.7      10       173      31.25    0                        
SJW-80           1                S-53             3.96     10       116      20.06    0                        
SJW-81           1                SJW-82           3.22     10       127      27.41    0                        
SJW-82           1                S-54             3.41     10       130      10.49    0                        
SJW-83           1                SJW-84           3.28     10       180      30.28    0                        
SJW-84           1                S-56             3.77     10       80       17.25    0                        
SJW-85           1                S-92             6.29     10       255      13.46    0                        
SJW-86           1                S-56             2.11     10       70       13.46    0                        
SJW-87           1                SJW-85           3.62     10       142      32.5     0                        
SJW-88           1                SJW-90           8.69     10       330      21.94    0                        
SJW-89           1                SJW-88           4.47     10       155      19.42    0                        
SJW-90           1                S-93             6.06     10       185      12.28    0                        
SJW-91           1                SJW-90           1.83     10       150      19.26    0                        
SJW-93           1                SJW-7            0.51     10       33.4     23.2     0                        
SJW-92           1                SJW-5            0.44     10       28.87    23.2     0                        
S-92             1                S-30             4.25     15       180      16.27    0                        
S-93             1                S-32             2.24     16       163      4.86     0                        

[SUBAREAS]
;;子汇水区   不透水N值   透水N值     不透水S   透水S     PctZero    演算到    PctRouted 
;;-------------- ---------- ---------- ---------- ---------- ---------- ---------- ----------
SJW-1            0.012      0.8        1.27       0.3        100        OUTLET    
SJW-2            0.012      0.8        1.27       0.3        100        OUTLET    
SJW-4            0.012      0.8        1.27       0.3        100        OUTLET    
SJW-5            0.012      0.8        1.27       0.3        100        OUTLET    
SJW-7            0.012      0.8        1.27       0.3        100        OUTLET    
SJW-8            0.012      0.8        1.27       0.3        100        OUTLET    
S-9              0.012      0.8        1.27       0.3        100        OUTLET    
S-10             0.012      0.8        1.27       0.3        100        OUTLET    
S-11             0.012      0.8        1.27       0.3        100        OUTLET    
S-12             0.012      0.8        1.27       0.3        100        OUTLET    
S-13             0.012      0.8        1.27       0.3        100        OUTLET    
S-14             0.012      0.8        1.27       0.3        100        OUTLET    
S-15             0.012      0.8        1.27       0.3        100        OUTLET    
S-16             0.012      0.8        1.27       0.3        100        OUTLET    
S-17             0.012      0.8        1.27       0.3        100        OUTLET    
S-18             0.012      0.8        1.27       0.3        100        OUTLET    
S-19             0.012      0.8        1.27       0.3        100        OUTLET    
S-20             0.012      0.8        1.27       0.3        100        OUTLET    
S-21             0.012      0.8        1.27       0.3        100        OUTLET    
S-22             0.012      0.8        1.27       0.3        100        OUTLET    
S-23             0.012      0.8        1.27       0.3        100        OUTLET    
S-24             0.012      0.8        1.27       0.3        100        OUTLET    
S-26             0.012      0.8        1.27       0.3        100        OUTLET    
S-27             0.012      0.8        1.27       0.3        100        OUTLET    
S-28             0.012      0.8        1.27       0.3        100        OUTLET    
S-29             0.012      0.8        1.27       0.3        100        OUTLET    
S-30             0.012      0.8        1.27       0.3        100        OUTLET    
S-31             0.012      0.8        1.27       0.3        100        OUTLET    
S-32             0.012      0.8        1.27       0.3        100        OUTLET    
S-33             0.012      0.8        1.27       0.3        100        OUTLET    
S-34             0.012      0.8        1.27       0.3        100        OUTLET    
S-35             0.012      0.8        1.27       0.3        100        OUTLET    
S-36             0.012      0.8        1.27       0.3        100        OUTLET    
S-41             0.012      0.8        1.27       0.3        100        OUTLET    
S-42             0.012      0.8        1.27       0.3        100        OUTLET    
S-43             0.012      0.8        1.27       0.3        100        OUTLET    
S-44             0.012      0.8        1.27       0.3        100        OUTLET    
S-45             0.012      0.8        1.27       0.3        100        OUTLET    
S-46             0.012      0.8        1.27       0.3        100        OUTLET    
S-47             0.012      0.8        1.27       0.3        100        OUTLET    
S-48             0.012      0.8        1.27       0.3        100        OUTLET    
S-49             0.012      0.8        1.27       0.3        100        OUTLET    
S-50             0.012      0.8        1.27       0.3        100        OUTLET    
S-51             0.012      0.8        1.27       0.3        100        OUTLET    
S-52             0.012      0.8        1.27       0.3        100        OUTLET    
S-53             0.012      0.8        1.27       0.3        100        OUTLET    
S-54             0.012      0.8        1.27       0.3        100        OUTLET    
S-55             0.012      0.8        1.27       0.3        100        OUTLET    
S-56             0.012      0.8        1.27       0.3        100        OUTLET    
S-61             0.012      0.8        1.27       0.3        100        OUTLET    
S-62             0.012      0.8        1.27       0.3        100        OUTLET    
S-63             0.012      0.8        1.27       0.3        100        OUTLET    
S-64             0.012      0.8        1.27       0.3        100        OUTLET    
S-65             0.012      0.8        1.27       0.3        100        OUTLET    
S-66             0.012      0.8        1.27       0.3        100        OUTLET    
S-67             0.012      0.8        1.27       0.3        100        OUTLET    
S-68             0.012      0.8        1.27       0.3        100        OUTLET    
S-70             0.012      0.8        1.27       0.3        100        OUTLET    
S-71             0.012      0.8        1.27       0.3        100        OUTLET    
SJW-72           0.012      0.8        1.27       0.3        100        OUTLET    
SJW-73           0.012      0.8        1.27       0.3        100        OUTLET    
SJW-74           0.012      0.8        1.27       0.3        100        OUTLET    
SJW-75           0.012      0.8        1.27       0.3        100        OUTLET    
SJW-76           0.012      0.8        1.27       0.3        100        OUTLET    
SJW-77           0.012      0.8        1.27       0.3        100        OUTLET    
SJW-78           0.012      0.8        1.27       0.3        100        OUTLET    
SJW-79           0.012      0.8        1.27       0.3        100        OUTLET    
SJW-80           0.012      0.8        1.27       0.3        100        OUTLET    
SJW-81           0.012      0.8        1.27       0.3        100        OUTLET    
SJW-82           0.012      0.8        1.27       0.3        100        OUTLET    
SJW-83           0.012      0.8        1.27       0.3        100        OUTLET    
SJW-84           0.012      0.8        1.27       0.3        100        OUTLET    
SJW-85           0.012      0.8        1.27       0.3        100        OUTLET    
SJW-86           0.012      0.8        1.27       0.3        100        OUTLET    
SJW-87           0.012      0.8        1.27       0.3        100        OUTLET    
SJW-88           0.012      0.8        1.27       0.3        100        OUTLET    
SJW-89           0.012      0.8        1.27       0.3        100        OUTLET    
SJW-90           0.012      0.8        1.27       0.3        100        OUTLET    
SJW-91           0.012      0.8        1.27       0.3        100        OUTLET    
SJW-93           0.012      0.8        1.27       0.3        100        OUTLET    
SJW-92           0.012      0.8        1.27       0.3        100        OUTLET    
S-92             0.012      0.8        1.27       0.3        100        OUTLET    
S-93             0.012      0.8        1.27       0.3        100        OUTLET    

[INFILTRATION]
;;子汇水区   Param1     Param2     Param3     Param4     Param5    
;;-------------- ---------- ---------- ---------- ---------- ----------
SJW-1            162.56     25.65      4          7          0         
SJW-2            167.64     12.7       4          7          0         
SJW-4            136.4      37.85      4          7          0         
SJW-5            136.4      37.85      4          7          0         
SJW-7            176.02     83.32      4          7          0         
SJW-8            163.83     25.65      4          7          0         
S-9              157.99     2.79       4          7          0         
S-10             162.56     27.69      4          7          0         
S-11             176.28     22.606     4          7          0         
S-12             176.28     22.606     4          7          0         
S-13             176.28     22.606     4          7          0         
S-14             140.208    22.606     4          7          0         
S-15             145.03     32.77      4          7          0         
S-16             145.03     33.78      4          7          0         
S-17             176.02     23.37      4          7          0         
S-18             183.9      26.92      4          7          0         
S-19             178.05     23.29      4          7          0         
S-20             151.9      23.6       4          7          0         
S-21             138.4      21         4          7          0         
S-22             204.1      40.2       4          7          0         
S-23             183.8      30         4          7          0         
S-24             189.1      31.7       4          7          0         
S-26             183.8      30         4          7          0         
S-27             163.8      25.6       4          7          0         
S-28             200.2      27.6       4          7          0         
S-29             191.3      35.4       4          7          0         
S-30             140.1      22.6       4          7          0         
S-31             191.3      35.4       4          7          0         
S-32             152.1      30.7       4          7          0         
S-33             171.3      25.6       4          7          0         
S-34             176.4      22.6       4          7          0         
S-35             155        32.5       4          7          0         
S-36             192.8      33.7       4          7          0         
S-41             160        34.8       4          7          0         
S-42             204.1      40.2       4          7          0         
S-43             176.3      23.4       4          7          0         
S-44             198.3      41.1       4          7          0         
S-45             155        32.5       4          7          0         
S-46             198.3      41.1       4          7          0         
S-47             172        33.7       4          7          0         
S-48             171.3      25.6       4          7          0         
S-49             134.6      17.8       4          7          0         
S-50             176.4      22.6       4          7          0         
S-51             176.4      22.6       4          7          0         
S-52             151.9      46.2       4          7          0         
S-53             171.3      25.6       4          7          0         
S-54             163.8      25.6       4          7          0         
S-55             218.9      39.5       4          7          0         
S-56             160        34.8       4          7          0         
S-61             181.3      37.7       4          7          0         
S-62             181.3      37.7       4          7          0         
S-63             178        23.3       4          7          0         
S-64             189.1      31.7       4          7          0         
S-65             160        34.8       4          7          0         
S-66             140.1      22.6       4          7          0         
S-67             183.8      30         4          7          0         
S-68             199        31.1       4          7          0         
S-70             183.8      30         4          7          0         
S-71             138.4      21         4          7          0         
SJW-72           136.3      37.8       4          7          0         
SJW-73           172.4      22.4       4          7          0         
SJW-74           218.9      39.5       4          7          0         
SJW-75           207.5      29.8       4          7          0         
SJW-76           199        31.1       4          7          0         
SJW-77           158.5      36.5       4          7          0         
SJW-78           204.1      40.2       4          7          0         
SJW-79           207.5      29.8       4          7          0         
SJW-80           171.3      25.6       4          7          0         
SJW-81           172.4      22.4       4          7          0         
SJW-82           204.1      40.2       4          7          0         
SJW-83           207.5      29.8       4          7          0         
SJW-84           181.3      37.7       4          7          0         
SJW-85           176.6      21.3       4          7          0         
SJW-86           176.6      21.3       4          7          0         
SJW-87           207.5      29.8       4          7          0         
SJW-88           171.3      25.6       4          7          0         
SJW-89           171.3      25.6       4          7          0         
SJW-90           183.8      30         4          7          0         
SJW-91           171.3      25.6       4          7          0         
SJW-93           199.9      27.69      4          7          0         
SJW-92           199.9      27.69      4          7          0         
S-92             141.3      22.7       4          7          0         
S-93             140.1      22.6       4          7          0         

[LID_CONTROLS]
;;名称           类型/分层 参数
;;-------------- ---------- ----------
A1               BC
A1               SURFACE    100        0.2        0.41       0.3        5         
A1               SOIL       300        0.463      0.232      0.116      3.3        10.0       88.9      
A1               STORAGE    300        0.75       50         0          NO        
A1               DRAIN      0          0          0          6          0          0                    

A2               BC
A2               SURFACE    150        0.2        0.41       0.3        5         
A2               SOIL       300        0.463      0.232      0.116      3.3        10.0       88.9      
A2               STORAGE    300        0.75       50         0          NO        
A2               DRAIN      0          0          0          6          0          0                    

A3               BC
A3               SURFACE    200        0.2        0.41       0.3        5         
A3               SOIL       300        0.463      0.232      0.116      3.3        10.0       88.9      
A3               STORAGE    300        0.75       50         0          NO        
A3               DRAIN      0          0          0          6          0          0                    

B1               BC
B1               SURFACE    200        0.15       0.4        0.3        5         
B1               SOIL       300        0.463      0.232      0.116      3.3        10.0       88.9      
B1               STORAGE    300        0.75       50         0          NO        
B1               DRAIN      0          0          0          6          0          0                    

B2               BC
B2               SURFACE    250        0.15       0.4        0.3        5         
B2               SOIL       300        0.463      0.232      0.116      3.3        10.0       88.9      
B2               STORAGE    300        0.75       50         0          NO        
B2               DRAIN      0          0          0          6          0          0                    

B3               BC
B3               SURFACE    300        0.15       0.4        0.3        5         
B3               SOIL       300        0.463      0.232      0.116      3.3        10.0       88.9      
B3               STORAGE    300        0.75       50         0          NO        
B3               DRAIN      0          0          0          6          0          0                    

C1               RG
C1               SURFACE    400        0.15       0.41       0.3        5         
C1               SOIL       300        0.475      0.378      0.265      0.254      10.0       320.04    
C1               STORAGE    0          0.75       50         0          NO        

C2               RG
C2               SURFACE    500        0.15       0.41       0.3        5         
C2               SOIL       300        0.475      0.378      0.265      0.254      10.0       320.04    
C2               STORAGE    0          0.75       50         0          NO        

C3               RG
C3               SURFACE    600        0.15       0.41       0.3        5         
C3               SOIL       300        0.475      0.378      0.265      0.254      10.0       320.04    
C3               STORAGE    0          0.75       50         0          NO        

C4               RG
C4               SURFACE    700        0.15       0.41       0.3        5         
C4               SOIL       300        0.475      0.378      0.265      0.254      10.0       320.04    
C4               STORAGE    0          0.75       50         0          NO        

C5               RG
C5               SURFACE    1000       0.15       0.41       0.3        5         
C5               SOIL       300        0.475      0.378      0.265      0.254      10.0       320.04    
C5               STORAGE    0          0.75       0          0          NO        

C6               RG
C6               SURFACE    2000       0.15       0.41       0.3        5         
C6               SOIL       300        0.475      0.378      0.265      0.254      10.0       320.04    
C6               STORAGE    0          0.75       0          0          NO        

[LID_USAGE]
;;子汇水区   LID过程      数量  面积       宽度      InitSat    FromImp    ToPerv     RptFile                  DrainTo          FromPerv  
;;-------------- ---------------- ------- ---------- ---------- ---------- ---------- ---------- ------------------------ ---------------- ----------
S-9              B1               1       0          0          0          0          0          *                        *                0               
S-10             A3               1       0          0          0          0          0          *                        *                0               
S-11             A2               1       0          0          0          0          0          *                        *                0               
S-12             A1               1       0          0          0          0          0          *                        *                0               
S-13             A3               1       0          0          0          0          0          *                        *                0               
S-14             C3               1       0          0          0          0          0          *                        *                0               
S-15             C4               1       0          0          0          0          0          *                        *                0               
S-16             C6               1       0          0          0          0          0          *                        *                0               
S-17             A3               1       0          0          0          0          0          *                        *                0               